this is my first push
new line....
new test
